<?xml version="1.0" encoding="UTF-8"?>

<!-- generated on 2023-07-13 11:32:36 by Eclipse SUMO duarouter Version 1.18.0
<configuration xmlns:xsi="http://www.w3.org/2001/XMLSchema-instance" xsi:noNamespaceSchemaLocation="http://sumo.dlr.de/xsd/duarouterConfiguration.xsd">

    <input>
        <net-file value="/Users/amanzer/Desktop/memo/sumo-simulation/ixelles/ixelles.net.xml"/>
        <route-files value="/Users/amanzer/Desktop/memo/sumo-simulation/ixelles/ixelles.trips.xml"/>
    </input>

    <output>
        <output-file value="/Users/amanzer/Desktop/memo/sumo-simulation/ixelles/ixelles.routes.xml"/>
    </output>

</configuration>
-->

<routes xmlns:xsi="http://www.w3.org/2001/XMLSchema-instance" xsi:noNamespaceSchemaLocation="http://sumo.dlr.de/xsd/routes_file.xsd">
    <vehicle id="79" depart="39.50">
        <route edges="-510702678#1 -510702678#0 5450857#0 5450857#1 24856752#0 24856752#1 40493384#2 40493384#3 40493384#4 40493384#5 510493161 40493385#0 40493385#1 40493385#2 231945290#0 231945290#1 231945290#2 231945290#3 117055115 137238867#2 4726785#1 856293284 4726717 393494867 4730646 30239233#2 1176385639 30240267 307580173#0 307580173#1 307580173#2 307580173#3 307580173#4 307580173#5 307580173#6 307580166 307580164 419562688 307580175#0 307580175#1 307580175#2 307580175#3 591897386#0 591897386#1 591897386#2 591897386#3 591897386#4 28923998 157271630 180167843 180167839 448425117 448425119 28923995 481249830#0 481249830#1 4731013#0 4731013#1 4731013#2 -4731013#2 -4731013#1"/>
    </vehicle>

    <vehicle id="78" depart="800.50">
        <route edges="-510702678#1 -510702678#0 5450857#0 5450857#1 24856752#0 24856752#1 40493384#2 40493384#3 40493384#4 40493384#5 510493161 40493385#0 40493385#1 40493385#2 231945290#0 231945290#1 231945290#2 231945290#3 117055115 137238867#2 4726785#1 856293284 4726717 393494867 4730646 30239233#2 1176385639 30240267 307580173#0 307580173#1 307580173#2 307580173#3 307580173#4 307580173#5 307580173#6 307580166 307580164 419562688 307580175#0 307580175#1 307580175#2 307580175#3 591897386#0 591897386#1 591897386#2 591897386#3 591897386#4 28923998 157271630 180167843 180167839 448425117 448425119 28923995 481249830#0 481249830#1 4731013#0 4731013#1 4731013#2 -4731013#2 -4731013#1"/>
    </vehicle>
</routes>
