<?xml version="1.0" encoding="UTF-8"?>

<!-- generated on 2023-07-20 15:25:40.531743 by generateBidiDistricts.py UNKNOWN
  options: /Users/amanzer/Desktop/memo/sumo-simulation/rerouter_experiment/ixelles.net.xml -o /Users/amanzer/Desktop/memo/sumo-simulation/rerouter_experiment/ixelles.taz.xml
-->

<tazs>
    <taz id="-100018126#0" edges="-100018126#0 100018126#0"/>
    <taz id="-100018126#1" edges="-100018126#1 100018126#1"/>
    <taz id="-100018130#0" edges="-100018130#0 100018130#0"/>
    <taz id="-100018130#1" edges="-100018130#1 100018130#1 711030322#1"/>
    <taz id="-100018132" edges="-100018132 100018132"/>
    <taz id="-100018134#0" edges="-100018134#0 100018134#0"/>
    <taz id="-100018134#1" edges="-100018134#1 100018134#1"/>
    <taz id="-1000455147#0" edges="-1000455147#0 1000455147#0"/>
    <taz id="-1000455147#1" edges="-1000455147#1 1000455147#1"/>
    <taz id="-1000455147#2" edges="-1000455147#2 1000455147#2"/>
    <taz id="-1000455148" edges="-1000455148 1000455148"/>
    <taz id="-1000455149" edges="-1000455149 1000455149"/>
    <taz id="-1000510394" edges="-1000510394 1000510394"/>
    <taz id="-1000510395" edges="-1000510395 1000510395"/>
    <taz id="-1000510396#0" edges="-1000510396#0 1000510396#0"/>
    <taz id="-1000510396#1" edges="-1000510396#1 1000510396#1"/>
    <taz id="-1000510397" edges="-1000510397 1000510397"/>
    <taz id="-1000541146#0" edges="-1000541146#0 1000541146#0"/>
    <taz id="-1000541146#1" edges="-1000541146#1 1000541146#1"/>
    <taz id="-1000541146#2" edges="-1000541146#2 1000541146#2"/>
    <taz id="-1000541147" edges="-1000541147 1000541147"/>
    <taz id="-1000541148#0" edges="-1000541148#0 1000541148#0"/>
    <taz id="-1000541148#1" edges="-1000541148#1 1000541148#1"/>
    <taz id="-1000717402#0" edges="-1000717402#0 1000717402#0"/>
    <taz id="-1000717402#1" edges="-1000717402#1 1000717402#1"/>
    <taz id="-1000734673" edges="-1000734673 1000734673 225605539#1"/>
    <taz id="-1000758602" edges="-1000758602 1000758602"/>
    <taz id="-1000784366#0" edges="-1000784366#0 1000784366#0"/>
    <taz id="-1000784366#1" edges="-1000784366#1 1000784366#1"/>
    <taz id="-1000784367" edges="-1000784367 1000784367"/>
    <taz id="-1000785831" edges="-1000785831 1000785831"/>
    <taz id="-1000787858" edges="-1000787858 1000787858 101100483#4"/>
    <taz id="-1000787859" edges="-1000787859 1000787859"/>
    <taz id="-1000787860#0" edges="-1000787860#0 1000787860#0"/>
    <taz id="-1000787860#1" edges="-1000787860#1 1000787860#1"/>
    <taz id="-1000787860#2" edges="-1000787860#2 1000787860#2"/>
    <taz id="-1000787861" edges="-1000787861 1000787861 1000787862"/>
    <taz id="-1000787862" edges="-1000787862 1000787862"/>
    <taz id="-1000787863" edges="-1000787863 1000787863 101100327#5"/>
    <taz id="-1000788219#0" edges="-1000788219#0 1000788219#0"/>
    <taz id="-1000788219#1" edges="-1000788219#1 -1000788220 1000788219#1 1000788220"/>
    <taz id="-1000788219#2" edges="-1000788219#2 1000788219#2"/>
    <taz id="-1000788220" edges="-1000788220 1000788219#1 1000788220"/>
    <taz id="-1000788221" edges="-1000788219#1 -1000788221 1000788219#1 1000788221"/>
    <taz id="-1000806569" edges="-1000806569 1000806569"/>
    <taz id="-1000806770" edges="-1000806770 1000806770"/>
    <taz id="-1000933268" edges="-1000933268 1000933268"/>
    <taz id="-1001094023" edges="-1001094023 1001094023"/>
    <taz id="-1001106251#0" edges="-1001106251#0 1001106251#0"/>
    <taz id="-1001106251#1" edges="-1001106251#1 1001106251#1"/>
    <taz id="-100111069" edges="-100111069 -100111075#1 100111069 100111075#1"/>
    <taz id="-100111072#0" edges="-100111072#0 100111072#0"/>
    <taz id="-100111072#1" edges="-100111072#1 100111072#1"/>
    <taz id="-100111072#2" edges="-100111072#2 100111072#2"/>
    <taz id="-100111073" edges="-100111073 -100111075#0 100111073"/>
    <taz id="-100111075#0" edges="-100111075#0 100111075#0"/>
    <taz id="-100111075#1" edges="-100111069 -100111075#1 100111069 100111075#1"/>
    <taz id="-100111075#2" edges="-100111075#2 100111075#2"/>
    <taz id="-100111076#0" edges="-100111076#0 100111076#0"/>
    <taz id="-100111076#1" edges="-100111076#1 100111076#1"/>
    <taz id="-100111076#2" edges="-100111076#2 100111076#2"/>
    <taz id="-100111076#3" edges="-100111076#3 100111076#3"/>
    <taz id="-1001144919" edges="-1001144919 1001144919"/>
    <taz id="-1001144920" edges="-1001144920 1001144920"/>
    <taz id="-1001347488" edges="-1001347488 1001347488"/>
    <taz id="-1001347490#0" edges="-1001347490#0 1001347490#0"/>
    <taz id="-1001347490#1" edges="-1001347490#1 -1001347490#2 1001347490#1"/>
    <taz id="-1001347490#2" edges="-1001347490#1 -1001347490#2 1001347490#2"/>
    <taz id="-1001347491" edges="-1001347491 1001347491"/>
    <taz id="-1001683863#0" edges="-1001683863#0 1001683863#0"/>
    <taz id="-1001683863#1" edges="-1001683863#1 1001683863#1"/>
    <taz id="-1001683863#2" edges="-1001683863#2 1001683863#2"/>
    <taz id="-1001683864" edges="-1001683864 1001683864"/>
    <taz id="-1001683865" edges="-1001683865 1001683865"/>
    <taz id="-1001683866" edges="-1001683866 1001683866"/>
    <taz id="-1001683867" edges="-1001683867 1001683867"/>
    <taz id="-1001683868" edges="-1001683868 1001683868"/>
    <taz id="-1001683869" edges="-1001683869 1001683869"/>
    <taz id="-1001683871" edges="-1001683871 1001683870 1001683871 527025236"/>
    <taz id="-1001719495" edges="-1001719495 1001719495 13764239#2"/>
    <taz id="-1001719498#0" edges="-1001719498#0 1001719498#0"/>
    <taz id="-1001719498#1" edges="-1001719498#1 1001719498#1"/>
    <taz id="-1001719498#2" edges="-1001719498#2 1001719498#2"/>
    <taz id="-1001719498#3" edges="-1001719498#3 1001719498#3"/>
    <taz id="-100437093" edges="-100437093 100437093"/>
    <taz id="-1005081167" edges="-1005081167 1005081167 1005081168"/>
    <taz id="-1006096329" edges="-1006096329 1006096329"/>
    <taz id="-1006096330" edges="-1006096330 1006096330"/>
    <taz id="-1006096331" edges="-1006096331 1006096331"/>
    <taz id="-1006106056#0" edges="-1006106056#0 1006106056#0 1127569559"/>
    <taz id="-1006106056#1" edges="-1006106056#1 1006106056#1"/>
    <taz id="-100612596#0" edges="-100612596#0 100612596#0"/>
    <taz id="-100612596#1" edges="-100612596#1 100612596#1"/>
    <taz id="-100612596#2" edges="-100612596#2 100612596#2"/>
    <taz id="-100612596#3" edges="-100612596#3 100612596#3"/>
    <taz id="-100612596#4" edges="-100612596#4 100612596#4"/>
    <taz id="-100612596#5" edges="-100612596#5 100612596#5"/>
    <taz id="-100612596#6" edges="-100612596#6 100612596#6"/>
    <taz id="-100612596#7" edges="-100612596#7 100612596#7"/>
    <taz id="-100641761" edges="-100641761 100641761"/>
    <taz id="-100776409" edges="-100776409 100776409"/>
    <taz id="-100776411#0" edges="-100776411#0 100776411#0"/>
    <taz id="-100776411#1" edges="-100776411#1 100776411#1"/>
    <taz id="-100776469" edges="-100776469 100776469"/>
    <taz id="-100821063" edges="-100821063 -100821071 100821063 100821071"/>
    <taz id="-100821071" edges="-100821063 -100821071 100821063 100821071 397073148#2"/>
    <taz id="-100821086" edges="-100821086 100821086"/>
    <taz id="-100821092#0" edges="-100821092#0 100821092#0"/>
    <taz id="-100821092#1" edges="-100821092#1 100821092#1"/>
    <taz id="-100821092#2" edges="-100821092#2 100821092#2"/>
    <taz id="-100891627" edges="-100891627 100891627"/>
    <taz id="-100891648#0" edges="-100891648#0 100891648#0"/>
    <taz id="-100891648#1" edges="-100891648#1 100891648#1"/>
    <taz id="-100891648#2" edges="-100891648#2 100891648#2"/>
    <taz id="-100891648#3" edges="-100891648#3 100891648#3"/>
    <taz id="-100891648#4" edges="-100891648#4 100891648#4"/>
    <taz id="-100891649" edges="-100891649 100891649"/>
    <taz id="-100891651#0" edges="-100891651#0 100891651#0"/>
    <taz id="-100891651#1" edges="-100891651#1 100891651#1"/>
    <taz id="-100891651#2" edges="-100891651#2 100891651#2"/>
    <taz id="-100891651#3" edges="-100891651#3 100891651#3"/>
    <taz id="-100891666#0" edges="-100891666#0 100891666#0"/>
    <taz id="-100891666#1" edges="-100891666#1 100891666#1"/>
    <taz id="-100891669#0" edges="-100891669#0 100891669#0"/>
    <taz id="-100891669#1" edges="-100891669#1 100891669#1"/>
    <taz id="-100891669#2" edges="-100891669#2 100891669#2"/>
    <taz id="-100891669#3" edges="-100891669#3 100891669#3"/>
    <taz id="-100891669#4" edges="-100891669#4 100891669#4"/>
    <taz id="-100891670#0" edges="-100891670#0 100891670#0"/>
    <taz id="-100891670#1" edges="-100891670#1 100891670#1"/>
    <taz id="-100891670#2" edges="-100891670#2 100891670#2"/>
    <taz id="-1009284238#0" edges="-1009284238#0 1009284238#0"/>
    <taz id="-1009284238#1" edges="-1009284238#1 1009284238#1"/>
    <taz id="-1009284238#2" edges="-1009284238#2 1009284238#2"/>
    <taz id="-1009284242" edges="-1009284242 1009284242"/>
    <taz id="-1010534033#0" edges="-1010534033#0 1010534033#0"/>
    <taz id="-1010534033#1" edges="-1010534033#1 1010534033#1"/>
    <taz id="-1010999732" edges="-1010999732 1010999732"/>
    <taz id="-101100327#0" edges="-101100327#0 101100327#0"/>
    <taz id="-101100327#1" edges="-101100327#1 101100327#1"/>
    <taz id="-101100327#10" edges="-101100327#10 101100327#10"/>
    <taz id="-101100327#2" edges="-101100327#2 101100327#2"/>
    <taz id="-101100327#3" edges="-101100327#3 101100327#3"/>
    <taz id="-101100327#4" edges="-101100327#4 101100327#4"/>
    <taz id="-101100327#5" edges="-101100327#5 101100327#5"/>
    <taz id="-101100327#6" edges="-101100327#6 101100327#6"/>
    <taz id="-101100327#7" edges="-101100327#7 101100327#7"/>
    <taz id="-101100327#8" edges="-101100327#8 101100327#8"/>
    <taz id="-101100327#9" edges="-101100327#9 101100327#9"/>
    <taz id="-101100339#0" edges="-101100339#0 -101100505 101100339#0"/>
    <taz id="-101100339#1" edges="-101100339#1 101100339#1"/>
    <taz id="-101100349" edges="-101100349 101100349"/>
    <taz id="-101100378" edges="-101100378 101100378"/>
    <taz id="-101100430" edges="-101100430 101100430 101100497#2"/>
    <taz id="-101100472" edges="-101100472 101100472"/>
    <taz id="-101100483#0" edges="-101100483#0 101100483#0"/>
    <taz id="-101100483#1" edges="-101100483#1 101100483#1"/>
    <taz id="-101100483#2" edges="-101100483#2 101100483#2"/>
    <taz id="-101100483#3" edges="-101100483#3 101100483#3"/>
    <taz id="-101100483#4" edges="-101100483#4 101100483#4"/>
    <taz id="-101100483#5" edges="-101100483#5 101100483#5"/>
    <taz id="-101100483#6" edges="-101100483#6 101100483#6"/>
    <taz id="-101100485#0" edges="-101100485#0 101100485#0"/>
    <taz id="-101100485#1" edges="-101100485#1 101100485#1"/>
    <taz id="-101100497#0" edges="-101100497#0 101100497#0"/>
    <taz id="-101100497#1" edges="-101100497#1 101100497#1"/>
    <taz id="-101100497#2" edges="-101100497#2 101100430 101100497#2"/>
    <taz id="-101100497#3" edges="-101100497#3 101100497#3"/>
    <taz id="-101100497#4" edges="-101100497#4 101100497#4"/>
    <taz id="-101100497#5" edges="-101100497#5 101100497#5"/>
    <taz id="-101100497#6" edges="-101100497#6 101100497#6"/>
    <taz id="-101100497#7" edges="-101100497#7 101100497#7"/>
    <taz id="-101100497#8" edges="-101100497#8 101100497#8"/>
    <taz id="-101100497#9" edges="-101100497#9 101100497#9"/>
    <taz id="-101100505" edges="-101100505 101100505"/>
    <taz id="-101100964#0" edges="-101100964#0 101100964#0"/>
    <taz id="-101100964#1" edges="-101100964#1 101100964#1"/>
    <taz id="-101100964#2" edges="-101100964#2 101100964#2"/>
    <taz id="-101104642" edges="-101104642 101104642"/>
    <taz id="-101104654" edges="-101104654 101104654"/>
    <taz id="-101104681#0" edges="-101104681#0 101104681#0"/>
    <taz id="-101104681#1" edges="-101104681#1 101104681#1"/>
    <taz id="-101104681#2" edges="-101104681#2 101104681#2"/>
    <taz id="-101264178#0" edges="-101264178#0 101264178#0"/>
    <taz id="-101264178#1" edges="-101264178#1 101264178#1"/>
    <taz id="-101264178#2" edges="-101264178#2 101264178#2"/>
    <taz id="-101264178#3" edges="-101264178#3 101264178#3"/>
    <taz id="-101264179#0" edges="-101264179#0 101264179#0"/>
    <taz id="-101264179#1" edges="-101264179#1 101264179#1"/>
    <taz id="-101264180#0" edges="-101264180#0 101264180#0"/>
    <taz id="-101264180#1" edges="-101264180#1 -751039937 101264180#1"/>
    <taz id="-101264185" edges="-101264185 101264185"/>
    <taz id="-101264188#0" edges="-101264188#0 101264188#0"/>
    <taz id="-101264188#1" edges="-101264188#1 101264188#1"/>
    <taz id="-101264188#2" edges="-101264188#2 101264188#2"/>
    <taz id="-101264188#3" edges="-101264188#3 101264188#3"/>
    <taz id="-101264191" edges="-101264191 101264191"/>
    <taz id="-1013851404" edges="-1013851404 1013851404"/>
    <taz id="-101429294" edges="-101429294 101429294"/>
    <taz id="-101429299#0" edges="-101429299#0 101429299#0"/>
    <taz id="-101429299#1" edges="-101429299#1 101429299#1"/>
    <taz id="-1015198218#0" edges="-1015198218#0 1015198218#0"/>
    <taz id="-1015198218#1" edges="-1015198218#1 1015198218#1"/>
    <taz id="-1017374614#0" edges="-1017374614#0 1017374614#0"/>
    <taz id="-1017374614#1" edges="-1017374614#1 1017374614#1"/>
    <taz id="-1017374614#2" edges="-1017374614#2 1017374614#2"/>
    <taz id="-1017374615#0" edges="-1017374615#0 1017374615#0"/>
    <taz id="-1017374615#1" edges="-1017374615#1 1017374615#1"/>
    <taz id="-101802657#0" edges="-101802657#0 101802657#0"/>
    <taz id="-101802657#1" edges="-101802657#1 101802657#1"/>
    <taz id="-101802823#0" edges="-101802823#0 101802823#0"/>
    <taz id="-101802823#1" edges="-101802823#1 101802823#1"/>
    <taz id="-1020500179" edges="-1020500179 1020500179"/>
    <taz id="-1020500384" edges="-1020500384 1020500384"/>
    <taz id="-1020500385#0" edges="-1020500385#0 1020500385#0"/>
    <taz id="-1020500385#1" edges="-1020500385#1 1020500385#1"/>
    <taz id="-1020500385#2" edges="-1020500385#2 1020500385#2"/>
    <taz id="-1021287158" edges="-1021287158 -31428637 1021287158"/>
    <taz id="-1021995665" edges="-1021995665 1021995665"/>
    <taz id="-1022367508#0" edges="-1022367508#0 1022367508#0"/>
    <taz id="-1022367508#1" edges="-1022367508#1 1022367508#1"/>
    <taz id="-1022367508#2" edges="-1022367508#2 1022367508#2"/>
    <taz id="-1022367508#3" edges="-1022367508#3 1022367508#3"/>
    <taz id="-1022367508#4" edges="-1022367508#4 1022367508#4"/>
    <taz id="-102332188#0" edges="-102332188#0 102332188#0"/>
    <taz id="-102332188#1" edges="-102332188#1 102332188#1"/>
    <taz id="-102341426#0" edges="-102341426#0 102341426#0"/>
    <taz id="-102341426#1" edges="-102341426#1 102341426#1"/>
    <taz id="-102341427" edges="-102341427 102341427 435055727#1"/>
    <taz id="-102341429" edges="-102341429 102341429 435055727#4"/>
    <taz id="-102341436#0" edges="-102341436#0 102341436#0"/>
    <taz id="-102341436#1" edges="-102341436#1 102341436#1"/>
    <taz id="-102341443" edges="-102341443 102341443"/>
    <taz id="-102341448#0" edges="-102341448#0 102341448#0"/>
    <taz id="-102341448#1" edges="-102341448#1 102341448#1"/>
    <taz id="-102341450#0" edges="-102341450#0 102341450#0"/>
    <taz id="-102341450#1" edges="-102341450#1 102341450#1"/>
    <taz id="-1024105863" edges="-1024105863 1024105863"/>
    <taz id="-102526566" edges="-102526566 102526566"/>
    <taz id="-102526572#0" edges="-102526572#0 102526572#0"/>
    <taz id="-102526572#1" edges="-102526572#1 -102526572#2 102526572#1"/>
    <taz id="-102526572#2" edges="-102526572#1 -102526572#2 102526572#2"/>
    <taz id="-102593652" edges="-102593652 102593652"/>
    <taz id="-1026052671#0" edges="-1026052671#0 1026052671#0"/>
    <taz id="-1026052671#1" edges="-1026052671#1 1026052671#1"/>
    <taz id="-102622058" edges="-102622058 102622058"/>
    <taz id="-1026833975" edges="-1026833975 1026833975"/>
    <taz id="-1026833976" edges="-1026833976 1026833976"/>
    <taz id="-102795373" edges="-102795373 102795373"/>
    <taz id="-1028388888" edges="-1028388888 1028388888"/>
    <taz id="-1028697624#0" edges="-1028697624#0 1028697624#0"/>
    <taz id="-1028697624#1" edges="-1028697624#1 1028697624#1"/>
    <taz id="-1028697624#2" edges="-1028697624#2 1028697624#2"/>
    <taz id="-1028697624#3" edges="-1028697624#3 1028697624#3"/>
    <taz id="-1028697624#4" edges="-1028697624#4 1028697624#4"/>
    <taz id="-1029632732" edges="-1029632732 1029632732"/>
    <taz id="-1029632733" edges="-1029632733 1029632733"/>
    <taz id="-1029632734" edges="-1029632734 1029632734"/>
    <taz id="-102995412" edges="-102995412 102995412"/>
    <taz id="-1033924043" edges="-1033924043 1033924043"/>
    <taz id="-1036224689" edges="-1036224689 1036224689 104795805#1"/>
    <taz id="-1036224691#0" edges="-1036224691#0 1036224691#0"/>
    <taz id="-1036224691#1" edges="-1036224691#1 1036224691#1"/>
    <taz id="-1036224691#2" edges="-1036224691#2 1036224691#2"/>
    <taz id="-1036224692#0" edges="-1036224692#0 1036224692#0"/>
    <taz id="-1036224692#1" edges="-1036224692#1 1036224692#1"/>
    <taz id="-1036224692#2" edges="-1036224692#2 1036224692#2 963189061"/>
    <taz id="-1036224692#3" edges="-1036224692#3 1036224692#3"/>
    <taz id="-1036224693#0" edges="-1036224693#0 1036224693#0"/>
    <taz id="-1036224693#1" edges="-1036224693#1 1036224693#1"/>
    <taz id="-1036224693#2" edges="-1036224693#2 1036224693#2"/>
    <taz id="-1036224693#3" edges="-1036224693#3 1036224693#3 963189075"/>
    <taz id="-1036224693#4" edges="-1036224693#4 1036224693#4"/>
    <taz id="-1036224693#5" edges="-1036224693#5 1036224693#5 23575714#2"/>
    <taz id="-1037986847" edges="-1037986847 1037986847"/>
    <taz id="-1039387331" edges="-1039387331 1039387331"/>
    <taz id="-1039720153#0" edges="-1039720153#0 1039720153#0"/>
    <taz id="-1039720153#1" edges="-1039720153#1 1039720153#1"/>
    <taz id="-104031259" edges="-104031259 104031259"/>
    <taz id="-104031280" edges="-104031280 104031280"/>
    <taz id="-104031288#0" edges="-104031288#0 104031288#0"/>
    <taz id="-104031288#1" edges="-104031288#1 104031288#1"/>
    <taz id="-1041085657#0" edges="-1041085657#0 1041085657#0"/>
    <taz id="-1041085657#1" edges="-1041085657#1 1041085657#1"/>
    <taz id="-104159877#0" edges="-104159877#0 104159877#0"/>
    <taz id="-104159877#1" edges="-104159877#1 104159877#1"/>
    <taz id="-104159910#0" edges="-104159910#0 104159910#0"/>
    <taz id="-104159910#1" edges="-104159910#1 104159910#1"/>
    <taz id="-104159930#0" edges="-104159930#0 104159930#0"/>
    <taz id="-104159930#1" edges="-104159930#1 104159930#1"/>
    <taz id="-104236022#0" edges="-104236022#0 104236022#0"/>
    <taz id="-104236022#1" edges="-104236022#1 104236022#1"/>
    <taz id="-104236022#2" edges="-104236022#2 104236022#2"/>
    <taz id="-104236022#3" edges="-104236022#3 104236022#3"/>
    <taz id="-104236023" edges="-104236023 104236023"/>
    <taz id="-104236028" edges="-104236028 104236028"/>
    <taz id="-104414427" edges="-104414427 1036684261#1 104414427"/>
    <taz id="-104414445#0" edges="-104414445#0 1036684251 1036684256 104414445#0"/>
    <taz id="-104414445#1" edges="-104414445#1 1036684256 104414445#1"/>
    <taz id="-104414445#2" edges="-104414445#2 1036684259 104414445#2"/>
    <taz id="-104574049#0" edges="-104574049#0 104574049#0"/>
    <taz id="-104574049#1" edges="-104574049#1 104574049#1"/>
    <taz id="-104574066#0" edges="-104574066#0 104574066#0"/>
    <taz id="-104574066#1" edges="-104574066#1 -104574066#2 104574066#1"/>
    <taz id="-104574066#2" edges="-104574066#1 -104574066#2 104574066#1 104574066#2"/>
    <taz id="-104574118#0" edges="-104574118#0 104574118#0"/>
    <taz id="-104574118#1" edges="-104574118#1 104574118#1"/>
    <taz id="-104574118#2" edges="-104574118#2 104574118#2"/>
    <taz id="-104574118#3" edges="-104574118#3 104574118#3"/>
    <taz id="-104574118#4" edges="-104574118#4 104574118#4"/>
    <taz id="-104574118#5" edges="-104574118#5 104574118#5"/>
    <taz id="-1046118800" edges="-1046118800 1046118800"/>
    <taz id="-1046124714" edges="-1046124714 1046124714"/>
    <taz id="-1046124717" edges="-1046124717 1046124717"/>
    <taz id="-1046124719" edges="-1046124719 1046124719"/>
    <taz id="-1046124720#0" edges="-1046124720#0 1046124720#0 95587088#1"/>
    <taz id="-1046124720#1" edges="-1046124720#1 -1046124721 1046124720#1 1046124721"/>
    <taz id="-1046124721" edges="-1046124720#1 -1046124721 1046124721 95587088#1"/>
    <taz id="-1046124722" edges="-1046124722 1046124722"/>
    <taz id="-1049407380" edges="-1049407380 1049407380"/>
    <taz id="-1049407384#0" edges="-1049407384#0 1049407384#0"/>
    <taz id="-1049407384#1" edges="-1049407384#1 1049407384#1"/>
    <taz id="-1049407384#2" edges="-1049407384#2 1049407384#2"/>
    <taz id="-1049407387#0" edges="-1049407387#0 1049407387#0"/>
    <taz id="-1049407387#1" edges="-1049407387#1 1049407387#1"/>
    <taz id="-1049407387#2" edges="-1049407387#2 1049407387#2"/>
    <taz id="-1049407387#3" edges="-1049407387#3 1049407387#3"/>
    <taz id="-1049798987" edges="-1049798987 1049798987"/>
    <taz id="-105042296#0" edges="-105042296#0 105042296#0"/>
    <taz id="-105042296#1" edges="-105042296#1 105042296#1"/>
    <taz id="-105042296#2" edges="-105042296#2 105042296#2"/>
    <taz id="-105061387#0" edges="-105061387#0 105061387#0"/>
    <taz id="-105061387#1" edges="-105061387#1 105061387#1"/>
    <taz id="-105061387#2" edges="-105061387#2 105061387#2"/>
    <taz id="-1051236435" edges="-1051236435 1051236435"/>
    <taz id="-1051541104" edges="-1051541104 1051541104"/>
    <taz id="-1051541105#0" edges="-1051541105#0 1051541105#0"/>
    <taz id="-1051541105#1" edges="-1051541105#1 1051541105#1"/>
    <taz id="-105198889" edges="-105198889 105198889"/>
    <taz id="-105198892#0" edges="-105198892#0 105198892#0"/>
    <taz id="-105198892#1" edges="-105198892#1 105198892#1"/>
    <taz id="-105198893#0" edges="-105198893#0 105198893#0"/>
    <taz id="-105198893#1" edges="-105198893#1 105198893#1"/>
    <taz id="-1052402966" edges="-1052402966 1052402966"/>
    <taz id="-1052402967" edges="-1052402967 1052402967"/>
    <taz id="-1052402968" edges="-1052402968 1052402968"/>
    <taz id="-1052402969" edges="-1052402969 1052402969"/>
    <taz id="-1053390978" edges="-1053390978 1053390978"/>
    <taz id="-1053390980" edges="-1053390980 1053390980"/>
    <taz id="-1053956450" edges="-1053956450 1053956450"/>
    <taz id="-1053956451" edges="-1053956451 1053956451"/>
    <taz id="-1053956452" edges="-1053956452 1053956452"/>
    <taz id="-1053957992" edges="-1053957992 1053957992"/>
    <taz id="-1053957993" edges="-1053957993 1053957993"/>
    <taz id="-1056200664" edges="-1056200664 1056200664"/>
    <taz id="-1056200665#0" edges="-1056200665#0 1056200665#0"/>
    <taz id="-1056200665#1" edges="-1056200665#1 1056200665#1"/>
    <taz id="-1056200665#2" edges="-1056200665#2 1056200665#2"/>
    <taz id="-1056201064" edges="-1056201064 1056201064"/>
    <taz id="-1056901981#0" edges="-1056901981#0 1056901981#0"/>
    <taz id="-1056901981#1" edges="-1056901981#1 1056901981#1"/>
    <taz id="-1057896580#0" edges="-1057896580#0 1057896580#0"/>
    <taz id="-1057896580#1" edges="-1057896580#1 1057896580#1"/>
    <taz id="-1057908463" edges="-1057908463 1057908463"/>
    <taz id="-1057908464" edges="-1057908464 1057908464"/>
    <taz id="-1057908465" edges="-1057908465 1057908465"/>
    <taz id="-1057908466" edges="-1057908466 1057908466"/>
    <taz id="-1058267556#0" edges="-1058267556#0 1058267556#0"/>
    <taz id="-1058267556#1" edges="-1058267556#1 -1092037414 1058267556#1"/>
    <taz id="-1058268367" edges="-1058268367 1058268367"/>
    <taz id="-1059828488" edges="-1059828488 1059828488"/>
    <taz id="-1059828489" edges="-1059828489 1059828489"/>
    <taz id="-1059828490" edges="-1059828490 1059828490"/>
    <taz id="-1060224382" edges="-1060224382 1060224382"/>
    <taz id="-1060224383" edges="-1060224383 1060224383"/>
    <taz id="-1060224384" edges="-1060224384 1060224384"/>
    <taz id="-1060224385#0" edges="-1060224385#0 1060224385#0"/>
    <taz id="-1060224385#1" edges="-1060224383 -1060224385#1 1060224385#1"/>
    <taz id="-1060234454" edges="-1060234454 1060234454"/>
    <taz id="-1060234455" edges="-1060234455 1060234455"/>
    <taz id="-1062939421" edges="-1062939421 1062939421"/>
    <taz id="-1064176128" edges="-1064176128 1064176128"/>
    <taz id="-1064675850" edges="-1064675850 1064675850"/>
    <taz id="-1064675851#0" edges="-1064675851#0 1064675851#0"/>
    <taz id="-1064675851#1" edges="-1064675851#1 1064675851#1"/>
    <taz id="-1064675851#2" edges="-1064675851#2 1064675851#2"/>
    <taz id="-1064675851#3" edges="-1064675851#3 1064675851#3 526773424#2"/>
    <taz id="-1064675851#4" edges="-1064675851#4 1064675851#4"/>
    <taz id="-1064694062#0" edges="-1064694062#0 1064694062#0"/>
    <taz id="-1064694062#1" edges="-1064694062#1 1064694062#1"/>
    <taz id="-1064694062#2" edges="-1064694062#2 1064694062#2 8152031#2 833362853#2"/>
    <taz id="-1064694062#3" edges="-1064694062#3 1064694062#3"/>
    <taz id="-1064694062#4" edges="-1064694062#4 1064694062#4 8152031#4 833362853#1"/>
    <taz id="-1064694062#5" edges="-1064694062#5 1064694062#5 1157269498#2"/>
    <taz id="-1065461173#0" edges="-1065461173#0 1065461173#0"/>
    <taz id="-1065461173#1" edges="-1065461173#1 1065461173#1"/>
    <taz id="-1065486190#0" edges="-1065486190#0 1065486190#0"/>
    <taz id="-1065486190#1" edges="-1065486190#1 1065486190#1"/>
    <taz id="-1065982069" edges="-1065982069 1065982069"/>
    <taz id="-1066438511#0" edges="-1066438511#0 1066438511#0"/>
    <taz id="-1066438511#1" edges="-1066438511#1 1066438511#1"/>
    <taz id="-1066478854#0" edges="-1066478854#0 1066478854#0"/>
    <taz id="-1066478854#1" edges="-1066478854#1 1066478854#1"/>
    <taz id="-1066510782#0" edges="-1066510782#0 1066510782#0"/>
    <taz id="-1066510782#1" edges="-1066510782#1 1066510782#1"/>
    <taz id="-1068994718" edges="-1068994718 1068994718"/>
    <taz id="-1071065219" edges="-1071065219 1071065219"/>
    <taz id="-1071065280" edges="-1071065280 1071065280"/>
    <taz id="-1075283353" edges="-1075283353 1075283353"/>
    <taz id="-1075283354" edges="-1075283354 1075283354"/>
    <taz id="-1075514353" edges="-1075514353 1075514353"/>
    <taz id="-1076897713" edges="-1076897713 1076897713"/>
    <taz id="-1077211221" edges="-1077211221 1077211221"/>
    <taz id="-1077818352" edges="-1077818352 1077818352"/>
    <taz id="-1077818539#0" edges="-1077818539#0 1077818539#0"/>
    <taz id="-1077818539#1" edges="-1077818539#1 1077818539#1"/>
    <taz id="-1077818539#2" edges="-1077818539#2 1077818539#2 1077818551#1 1077818556"/>
    <taz id="-1077818539#3" edges="-1077818539#3 1077818539#3 1077818551#0"/>
    <taz id="-1077818540" edges="-1077818540 1077818540 1077818545#1 1077818549"/>
    <taz id="-1077818541#0" edges="-1077818539#3 -1077818541#0 1077818541#0"/>
    <taz id="-1077818541#1" edges="-1077818541#1 1077818541#1"/>
    <taz id="-1077818541#2" edges="-1077818541#2 1077818541#2"/>
    <taz id="-1077818542#0" edges="-1077818542#0 1077818542#0"/>
    <taz id="-1077818542#1" edges="-1077818542#1 1077818542#1"/>
    <taz id="-1077819553" edges="-1077819553 1077819553 833141044"/>
    <taz id="-1077822075#0" edges="-1077822075#0 1077822075#0"/>
    <taz id="-1077822075#1" edges="-1077822075#1 -760973308#4 1077822075#1 760973308#4"/>
    <taz id="-1077823533#0" edges="-1077823533#0 1077823533#0"/>
    <taz id="-1077823533#1" edges="-1077823533#1 1077823533#1"/>
    <taz id="-1077823533#2" edges="-1077823533#2 1077823533#2"/>
    <taz id="-1077823534" edges="-1077823534 1077823534"/>
    <taz id="-1077824724" edges="-1077824724 1077824724"/>
    <taz id="-1077825730" edges="-1077825730 1077825730"/>
    <taz id="-1077835592#0" edges="-1077835592#0 100612631#0 1077835592#0"/>
    <taz id="-1077835592#1" edges="-1077835592#1 1077835592#1"/>
    <taz id="-1077835594#0" edges="-1077835594#0 1077835594#0"/>
    <taz id="-1077835594#1" edges="-1077835594#1 1077835594#1"/>
    <taz id="-1078269226" edges="-1078269226 1078269226"/>
    <taz id="-1078269227" edges="-1078269227 1078269227"/>
    <taz id="-1078796764" edges="-1078796764 1078796764"/>
    <taz id="-1078796766#0" edges="-1078796766#0 1078796766#0"/>
    <taz id="-1078796766#1" edges="-1078796766#1 1078796766#1"/>
    <taz id="-1078796766#2" edges="-1078796766#2 1078796766#2"/>
    <taz id="-1078802242#0" edges="-1078802242#0 1078802242#0"/>
    <taz id="-1078802242#1" edges="-1078802242#1 1078802242#1"/>
    <taz id="-1078802243#0" edges="-1078802243#0 1078802243#0"/>
    <taz id="-1078802243#1" edges="-1078802243#1 1078802243#1"/>
    <taz id="-1078802247#0" edges="-1078802247#0 1078802247#0 1079053937 1079053938 318632702#5 318636344#1"/>
    <taz id="-1078802247#1" edges="-1078802247#1 1078802247#1 318636344#0"/>
    <taz id="-1078802248#0" edges="-1078802248#0 1078802248#0 1079053940#1 318632702#2 318636344#4 398192542#2 624872187#1"/>
    <taz id="-1078802248#1" edges="-1078802248#0 -1078802248#1 1078802248#1 318636344#4"/>
    <taz id="-1078802248#2" edges="-1078802248#2 1078802248#2 1079053940#0 318632702#3 318636344#3 398192542#1 496148055"/>
    <taz id="-1079054386" edges="-1079054386 1079054386"/>
    <taz id="-1079054387" edges="-1079054387 1079054387"/>
    <taz id="-1079054388" edges="-1079054388 1079054388"/>
    <taz id="-1079611695#0" edges="-1079611695#0 1079611695#0 308868834#1"/>
    <taz id="-1079611695#1" edges="-1079611695#1 1079611695#1"/>
    <taz id="-1079611695#2" edges="-1079611695#2 1079611695#2"/>
    <taz id="-1080960154#0" edges="-1080960154#0 1080960154#0"/>
    <taz id="-1080960154#1" edges="-1080960154#1 1080960154#1 597068344#2"/>
    <taz id="-1080979953#0" edges="-1080979953#0 1080979953#0"/>
    <taz id="-1080979953#1" edges="-1080979953#1 1080979953#1 1110129262#11 1118475230#2"/>